*Heading
** Job name: cantilever_beam_quad8 Model name: Model-1
** Generated by: Abaqus/CAE 2023
*Preprint, echo=NO, model=NO, history=NO, contact=NO
**
** PARTS
**
*Part, name=Part-1
*Node
      1,         200.,           0.
      2,   197.014923,           0.
      3,   194.029846,           0.
      4,   191.044769,           0.
      5,   188.059708,           0.
      6,   185.074631,           0.
      7,   182.089554,           0.
      8,   179.104477,           0.
      9,     176.1194,           0.
     10,   173.134323,           0.
     11,   170.149246,           0.
     12,   167.164185,           0.
     13,   164.179108,           0.
     14,   161.194031,           0.
     15,   158.208954,           0.
     16,   155.223877,           0.
     17,     152.2388,           0.
     18,   149.253738,           0.
     19,   146.268661,           0.
     20,   143.283585,           0.
** ... 724 like lines cut
*Element, type=CPS8
  1,   1,   2,  70,  69, 273, 274, 275, 276
  2,   2,   3,  71,  70, 277, 278, 279, 274
  3,   3,   4,  72,  71, 280, 281, 282, 278
  4,   4,   5,  73,  72, 283, 284, 285, 281
  5,   5,   6,  74,  73, 286, 287, 288, 284
  6,   6,   7,  75,  74, 289, 290, 291, 287
  7,   7,   8,  76,  75, 292, 293, 294, 290
  8,   8,   9,  77,  76, 295, 296, 297, 293
  9,   9,  10,  78,  77, 298, 299, 300, 296
 10,  10,  11,  79,  78, 301, 302, 303, 299
 11,  11,  12,  80,  79, 304, 305, 306, 302
 12,  12,  13,  81,  80, 307, 308, 309, 305
 13,  13,  14,  82,  81, 310, 311, 312, 308
 14,  14,  15,  83,  82, 313, 314, 315, 311
 15,  15,  16,  84,  83, 316, 317, 318, 314
 16,  16,  17,  85,  84, 319, 320, 321, 317
 17,  17,  18,  86,  85, 322, 323, 324, 320
 18,  18,  19,  87,  86, 325, 326, 327, 323
 19,  19,  20,  88,  87, 328, 329, 330, 326
 20,  20,  21,  89,  88, 331, 332, 333, 329
** ... 181 like lines cut
*Nset, nset=_PickedSet2, internal, generate
   1,  744,    1
*Elset, elset=_PickedSet2, internal, generate
   1,  201,    1
** Section: Section-1
*Solid Section, elset=_PickedSet2, material=Material-1
1.,
*End Part
**  
**
** ASSEMBLY
**
*Assembly, name=Assembly
**  
*Instance, name=Part-1-1, part=Part-1
*End Instance
**  
*Nset, nset=Set-fixed, instance=Part-1-1
  68, 136, 204, 272, 473, 608, 743
*Elset, elset=Set-fixed, instance=Part-1-1, generate
  67,  201,   67
*Nset, nset=Set-loaded, instance=Part-1-1
   1,  69, 137, 205, 276, 477, 612
*Elset, elset=Set-loaded, instance=Part-1-1, generate
   1,  135,   67
*Elset, elset=_Surf-loaded_S4, internal, instance=Part-1-1, generate
   1,  135,   67
*Surface, type=ELEMENT, name=Surf-loaded
_Surf-loaded_S4, S4
*End Assembly
** 
** MATERIALS
** 
*Material, name=Material-1
*Elastic
220000., 0.3
** ----------------------------------------------------------------
** 
** STEP: Step-1
** 
*Step, name=Step-1, nlgeom=NO
*Static
0.1, 1., 1e-05, 1.
** 
** BOUNDARY CONDITIONS
** 
** Name: BC-1 Type: Displacement/Rotation
*Boundary
Set-fixed, 1, 1
Set-fixed, 2, 2
Set-fixed, 6, 6
** 
** LOADS
** 
** Name: Load-1   Type: Surface traction
*Dsload
Surf-loaded, TRSHR, 2., 0., -1., 0.
** 
** OUTPUT REQUESTS
** 
*Restart, write, frequency=0
** 
** FIELD OUTPUT: F-Output-1
** 
*Output, field, variable=PRESELECT
** 
** HISTORY OUTPUT: H-Output-1
** 
*Output, history, variable=PRESELECT
*End Step
