*Heading
** Job name: Job-2 Model name: Cantilever_TetQuadratic
** Generated by: Abaqus/CAE 2024
*Preprint, echo=NO, model=NO, history=NO, contact=NO
**
** PARTS
**
*Part, name=Beam
*Node
      1,         100.,          10.,          10.
      2,         100.,           0.,          10.
      3,         100.,           0.,           0.
      4,         100.,          10.,           0.
      5,           0.,           0.,          10.
      6,           0.,           0.,           0.
      7,           0.,          10.,           0.
      8,           0.,          10.,          10.
      9,         100.,          7.5,          10.
     10,         100.,           5.,          10.
     11,         100.,          2.5,          10.
     12,         100.,           0.,          7.5
     13,         100.,           0.,           5.
     14,         100.,           0.,          2.5
     15,         100.,          2.5,           0.
     16,         100.,           5.,           0.
     17,         100.,          7.5,           0.
     18,         100.,          10.,          2.5
     19,         100.,          10.,           5.
     20,         100.,          10.,          7.5
** ... 8020 like lines cut
*Element, type=C3D10
   1,  675,  676,  677,  678, 1209, 1208, 1207, 1211, 1210, 1212
   2,  675,  677,  676,  679, 1207, 1208, 1209, 1214, 1213, 1215
   3,  675,  680,  681,  682, 1218, 1217, 1216, 1220, 1219, 1221
   4,  683,  675,  676,  679, 1223, 1209, 1222, 1224, 1214, 1215
   5,  684,  685,  686,  687, 1227, 1226, 1225, 1229, 1228, 1230
   6,  685,  684,  688,  689, 1227, 1232, 1231, 1234, 1233, 1235
   7,  685,  690,  684,  689, 1237, 1236, 1227, 1234, 1238, 1233
   8,  685,  691,  692,  693, 1241, 1240, 1239, 1243, 1242, 1244
   9,  694,  693,  687,  685, 1247, 1246, 1245, 1248, 1243, 1228
  10,  695,  696,  697,  698, 1251, 1250, 1249, 1253, 1252, 1254
  11,  696,  699,  698,  700, 1256, 1255, 1252, 1258, 1257, 1259
  12,  696,  701,  698,  695, 1261, 1260, 1252, 1251, 1262, 1253
  13,  696,  649,  702,  703, 1265, 1264, 1263, 1267, 1266, 1268
  14,  696,  700,  698,  701, 1258, 1259, 1252, 1261, 1269, 1260
  15,  649,  650,  704,  696, 1272, 1271, 1270, 1265, 1273, 1274
  16,  705,  706,  707,  708, 1277, 1276, 1275, 1279, 1278, 1280
  17,  116,  709,  420,  710, 1283, 1282, 1281, 1285, 1284, 1286
  18,  705,  711,  712,  710, 1289, 1288, 1287, 1291, 1290, 1292
  19,  713,  705,  708,  714, 1294, 1279, 1293, 1296, 1295, 1297
  20,  705,  715,  716,  706, 1300, 1299, 1298, 1277, 1301, 1302
** ... 4937 like lines cut
*Nset, nset=_PickedSet2, internal, generate
    1,  8040,     1
*Elset, elset=_PickedSet2, internal, generate
    1,  4957,     1
** Section: Section_Beam
*Solid Section, elset=_PickedSet2, material=Material_Steel
,
*End Part
**  
**
** ASSEMBLY
**
*Assembly, name=Assembly
**  
*Instance, name=BeamInstance, part=Beam
*End Instance
**  
*Node
      1,         100.,           5.,           5.
*Nset, nset=Set_FixedEnd, instance=BeamInstance
    5,    6,    7,    8,   60,   61,   62,  102,  103,  104,  183,  184,  185,  186,  187,  188
  666,  667,  668,  669,  670,  671,  672,  673,  674, 2659, 2660, 2662, 2871, 2886, 2887, 3584
 3627, 3628, 3629, 3774, 3776, 3975, 3983, 3986, 4092, 5101, 5103, 5316, 5452, 5500, 5511, 5618
 5619, 5621, 5682, 5791, 5792, 6099, 6100, 6136, 6759, 6844, 6845, 6954, 6987, 7126, 7127, 7332
 7370, 7401, 7444, 7454, 7577, 7580, 7581, 7798, 7802, 7804, 7864, 7868, 7871, 7874, 7899, 7942
 7956,
*Elset, elset=Set_FixedEnd, instance=BeamInstance
  418,  489,  734,  770, 1267, 1532, 1627, 1628, 1795, 2370, 2643, 2842, 2897, 2956, 3056, 3122
 3317, 3320, 3345, 3804, 4047, 4053, 4129, 4223, 4225, 4352, 4356, 4359, 4417, 4475, 4534, 4726
*Nset, nset=Set_LoadPoint
 1,
*Elset, elset=_Surf_LoadEnd_S3, internal, instance=BeamInstance
  199, 1665, 1668, 1723, 1746, 1749, 1752, 1755, 1761, 1766, 1770, 1772, 1783, 1786, 1805, 1806
 1812, 1825, 1831, 1837, 1843, 1859, 1892, 1898, 2419, 3126, 3373, 3590, 3894, 4245, 4246, 4913
*Surface, type=ELEMENT, name=Surf_LoadEnd
_Surf_LoadEnd_S3, S3
** Constraint: Couple_LoadPoint
*Coupling, constraint name=Couple_LoadPoint, ref node=Set_LoadPoint, surface=Surf_LoadEnd
*Kinematic
*End Assembly
** 
** MATERIALS
** 
*Material, name=Material_Steel
*Elastic
210000., 0.3
** 
** BOUNDARY CONDITIONS
** 
** Name: BC_Fixed Type: ¶ÔłĆ/·´¶ÔłĆ/ÍęČ«ąĚ¶¨
*Boundary
Set_FixedEnd, ENCASTRE
** ----------------------------------------------------------------
** 
** STEP: Step_Load
** 
*Step, name=Step_Load, nlgeom=NO
*Static
1., 1., 1e-05, 1.
** 
** LOADS
** 
** Name: Load_Tip   Type: Concentrated force
*Cload
Set_LoadPoint, 2, -100.
** 
** OUTPUT REQUESTS
** 
*Restart, write, frequency=0
** 
** FIELD OUTPUT: F-Output-1
** 
*Output, field, variable=PRESELECT
** 
** HISTORY OUTPUT: H-Output-1
** 
*Output, history, variable=PRESELECT
*End Step
