*Heading
** Job name: Job-1 Model name: Model-1
** Generated by: Abaqus/CAE 2023
*Preprint, echo=NO, model=NO, history=NO, contact=NO
**
** PARTS
**
*Part, name=Part-1
*Node
      1,        11.25,          10.,         200.
      2,        11.25,           0.,         200.
      3,        11.25,          10.,         192.
      4,        11.25,           0.,         192.
      5,        11.25,          10.,         184.
      6,        11.25,           0.,         184.
      7,        11.25,          10.,         176.
      8,        11.25,           0.,         176.
      9,        11.25,          10.,         168.
     10,        11.25,           0.,         168.
     11,        11.25,          10.,         160.
     12,        11.25,           0.,         160.
     13,        11.25,          10.,         152.
     14,        11.25,           0.,         152.
     15,        11.25,          10.,         144.
     16,        11.25,           0.,         144.
     17,        11.25,          10.,         136.
     18,        11.25,           0.,         136.
     19,        11.25,          10.,         128.
     20,        11.25,           0.,         128.
** ... 84 like lines cut
*Element, type=C3D8
 1,  53,  54,  56,  55,   1,   2,   4,   3
 2,  55,  56,  58,  57,   3,   4,   6,   5
 3,  57,  58,  60,  59,   5,   6,   8,   7
 4,  59,  60,  62,  61,   7,   8,  10,   9
 5,  61,  62,  64,  63,   9,  10,  12,  11
 6,  63,  64,  66,  65,  11,  12,  14,  13
 7,  65,  66,  68,  67,  13,  14,  16,  15
 8,  67,  68,  70,  69,  15,  16,  18,  17
 9,  69,  70,  72,  71,  17,  18,  20,  19
10,  71,  72,  74,  73,  19,  20,  22,  21
11,  73,  74,  76,  75,  21,  22,  24,  23
12,  75,  76,  78,  77,  23,  24,  26,  25
13,  77,  78,  80,  79,  25,  26,  28,  27
14,  79,  80,  82,  81,  27,  28,  30,  29
15,  81,  82,  84,  83,  29,  30,  32,  31
16,  83,  84,  86,  85,  31,  32,  34,  33
17,  85,  86,  88,  87,  33,  34,  36,  35
18,  87,  88,  90,  89,  35,  36,  38,  37
19,  89,  90,  92,  91,  37,  38,  40,  39
20,  91,  92,  94,  93,  39,  40,  42,  41
** ... 5 like lines cut
*Nset, nset=Set-1, generate
   1,  104,    1
*Elset, elset=Set-1, generate
  1,  25,   1
** Section: Section-1
*Solid Section, elset=Set-1, material=Material-1
,
*End Part
**  
**
** ASSEMBLY
**
*Assembly, name=Assembly
**  
*Instance, name=Part-1-1, part=Part-1
*End Instance
**  
*Nset, nset=Set-1, instance=Part-1-1
  1,  2, 53, 54
*Elset, elset=Set-1, instance=Part-1-1
 1,
*Nset, nset=Set-2, instance=Part-1-1
  51,  52, 103, 104
*Elset, elset=Set-2, instance=Part-1-1
 25,
*End Assembly
** 
** MATERIALS
** 
*Material, name=Material-1
*Density
7800.,
*Elastic
220000., 0.3
** ----------------------------------------------------------------
** 
** STEP: Step-1
** 
*Step, name=Step-1, nlgeom=NO
*Static
1., 1., 1e-05, 1.
** 
** BOUNDARY CONDITIONS
** 
** Name: BC-1 Type: Symmetry/Antisymmetry/Encastre
*Boundary
Set-1, ENCASTRE
** Name: BC-2 Type: Displacement/Rotation
*Boundary
Set-2, 2, 2, -5.
** 
** OUTPUT REQUESTS
** 
*Restart, write, frequency=0
** 
** FIELD OUTPUT: F-Output-1
** 
*Output, field, variable=PRESELECT
** 
** HISTORY OUTPUT: H-Output-1
** 
*Output, history, variable=PRESELECT
*End Step
