*Heading
** Job name: Quad2D Model name: Model-1
** Generated by: Abaqus/CAE 2023
*Preprint, echo=NO, model=NO, history=NO, contact=NO
**
** PARTS
**
*Part, name=Part-1
*Node
      1,         -50.,           0.
      2,          -7.,           0.
      3,           0.,           7.
      4,           0.,          15.
      5,         -50.,          15.
      6,           7.,           0.
      7,          50.,           0.
      8,          50.,          15.
      9,           0.,         -15.
     10,           0.,          -7.
     11,         -50.,         -15.
     12,          50.,         -15.
     13,  -47.1581726,           0.
     14,   -44.467865,           0.
     15,  -41.9209938,           0.
     16,  -39.5099106,           0.
     17,  -37.2273788,           0.
     18,  -35.0665474,           0.
     19,  -33.0209198,           0.
     20,   -31.084362,           0.
** ... 940 like lines cut
*Element, type=CPS4
  1,  15,  16, 335, 336
  2, 336, 337,  14,  15
  3,  16,  17, 334, 335
  4,  48, 204, 209,  47
  5,  49, 205, 204,  48
  6, 297, 309, 327, 331
  7, 366, 367, 356, 353
  8,  18,  19, 297, 331
  9,  19,  20, 295, 297
 10,  20,  21, 293, 295
 11,  21,  22, 292, 293
 12, 262, 282, 241, 239
 13, 217, 241, 264, 265
 14,  24,  25, 217, 265
 15,  25,  26, 216, 217
 16,  26,  27, 215, 216
 17, 213, 214,  28,  29
 18, 212, 213,  29,  30
 19, 211, 212,  30,  31
 20, 210, 211,  31,  32
** ... 874 like lines cut
*Nset, nset=_PickedSet3, internal, generate
   1,  960,    1
*Elset, elset=_PickedSet3, internal, generate
   1,  894,    1
** Section: Section-1
*Solid Section, elset=_PickedSet3, material=Material-1
1.,
*End Part
**  
**
** ASSEMBLY
**
*Assembly, name=Assembly
**  
*Instance, name=Part-1-1, part=Part-1
*End Instance
**  
*Nset, nset=Set-1-fixed, instance=Part-1-1
   1,   5,  11,  72,  73,  74,  75, 149, 150, 151, 152
*Nset, nset=Set-2-loaded, instance=Part-1-1
   7,   8,  12, 115, 116, 117, 118, 185, 186, 187, 188
*End Assembly
** 
** MATERIALS
** 
*Material, name=Material-1
*Elastic
210000., 0.3
** ----------------------------------------------------------------
** 
** STEP: Step-1
** 
*Step, name=Step-1, nlgeom=NO
*Static
0.1, 1., 1e-05, 1.
** 
** BOUNDARY CONDITIONS
** 
** Name: BC-1 Type: Displacement/Rotation
*Boundary
Set-1-fixed, 1, 1
Set-1-fixed, 2, 2
Set-1-fixed, 6, 6
** 
** LOADS
** 
** Name: Load-1   Type: Concentrated force
*Cload
Set-2-loaded, 1, 5000.
** 
** OUTPUT REQUESTS
** 
*Restart, write, frequency=0
** 
** FIELD OUTPUT: F-Output-1
** 
*Output, field, variable=PRESELECT
** 
** HISTORY OUTPUT: H-Output-1
** 
*Output, history, variable=PRESELECT
*End Step
