*Heading
** Job name: quad8 Model name: Model-1
** Generated by: Abaqus/CAE 2023
*Preprint, echo=NO, model=NO, history=NO, contact=NO
**
** PARTS
**
*Part, name=Part-1
*Node
      1,         300.,         100.
      2,           0.,         100.
      3,           0.,           0.
      4,         300.,           0.
      5,         150.,          15.
      6,   153.904343,   46.8765259
      7,         290.,         100.
      8,         280.,         100.
      9,         270.,         100.
     10,         260.,         100.
     11,         250.,         100.
     12,         240.,         100.
     13,         230.,         100.
     14,         220.,         100.
     15,         210.,         100.
     16,         200.,         100.
     17,         190.,         100.
     18,         180.,         100.
     19,         170.,         100.
     20,         160.,         100.
** ... 7522 like lines cut
*Element, type=CPS8
  1,  119,  773,  266,  120, 2546, 2547, 2548, 2549
  2,  311,  129,  128,  317, 2550, 2551, 2552, 2553
  3,  275,  125,  124,  271, 2554, 2555, 2556, 2557
  4,  133,  282,  314,  134, 2558, 2559, 2560, 2561
  5,  315,  314,  370,  380, 2562, 2563, 2564, 2565
  6,  581,  554,  567,  600, 2566, 2567, 2568, 2569
  7,  684,  789,  688,  697, 2570, 2571, 2572, 2573
  8,  306,   85,   84,  771, 2574, 2575, 2576, 2577
  9,  303,   94,   93,  278, 2578, 2579, 2580, 2581
 10,   90,  269,  279,   91, 2582, 2583, 2584, 2585
 11,  516,  808,  500,  515, 2586, 2587, 2588, 2589
 12,  510,  830,  814,  545, 2590, 2591, 2592, 2593
 13,  586,  593,  570,  575, 2594, 2595, 2596, 2597
 14,  281,  280,  345,  382, 2598, 2599, 2600, 2601
 15,  291,   97,   96,  283, 2602, 2603, 2604, 2605
 16,  280,  284,  357,  345, 2606, 2607, 2608, 2599
 17,  514,  470,  501,  531, 2609, 2610, 2611, 2612
 18,  531,  552,  556,  514, 2613, 2614, 2615, 2612
 19,   57,   58,  340,  464, 2616, 2617, 2618, 2619
 20,  439,  467,  819,  496, 2620, 2621, 2622, 2623
** ... 2432 like lines cut
*Nset, nset=_PickedSet3, internal, generate
    1,  7542,     1
*Elset, elset=_PickedSet3, internal, generate
    1,  2452,     1
** Section: Section-1
*Solid Section, elset=_PickedSet3, material=steal
1.,
*End Part
**  
**
** ASSEMBLY
**
*Assembly, name=Assembly
**  
*Instance, name=Part-1-1, part=Part-1
*End Instance
**  
*Nset, nset=Set-fixed-1, instance=Part-1-1
    2,    3,   36,   37,   38,   39,   40,   41,   42,   43,   44, 2708, 2742, 3844, 3863, 3865
 3875, 3887, 3895, 3904, 3907
*Elset, elset=Set-fixed-1, instance=Part-1-1
  44,  53, 574, 584, 587, 593, 602, 612, 617, 620
*Nset, nset=Set-fixed-2, instance=Part-1-1
 3,
*Nset, nset=Set-loaded, instance=Part-1-1
    1,    4,   74,   75,   76,   77,   78,   79,   80,   81,   82, 2828, 2830, 2855, 3870, 3872
 3882, 3901, 3903, 3912, 3915
*Elset, elset=Set-loaded, instance=Part-1-1
  78,  79,  86, 588, 591, 598, 615, 616, 625, 627
*End Assembly
** 
** MATERIALS
** 
*Material, name=steal
*Elastic
220000., 0.3
** ----------------------------------------------------------------
** 
** STEP: Step-1
** 
*Step, name=Step-1, nlgeom=NO, inc=1000
*Static
0.01, 1., 1e-05, 1.
** 
** BOUNDARY CONDITIONS
** 
** Name: BC-1 Type: Displacement/Rotation
*Boundary
Set-fixed-1, 1, 1
** Name: BC-2 Type: Displacement/Rotation
*Boundary
Set-fixed-2, 2, 2
** Name: BC-3 Type: Displacement/Rotation
*Boundary
Set-loaded, 1, 1, 0.1
** 
** OUTPUT REQUESTS
** 
*Restart, write, frequency=0
** 
** FIELD OUTPUT: F-Output-1
** 
*Output, field, variable=PRESELECT
** 
** HISTORY OUTPUT: H-Output-1
** 
*Output, history, variable=PRESELECT
*End Step
